
.subckt cdie a1 a2 a3 a4
+ a5
r1 100
r2 200
.ends